Version,7.2;
ScheduleTypeLimits,Fraction,0,1,Continuous,Dimensionless;
ScheduleTypeLimits,Comfort Temperature,19,26,Continuous,Temperature;
