Version,7.2;
ScheduleTypeLimits,Fraction,0,1,Continuous,Dimensionless;